Program Version,EnergyPlus, Version 25.2.0-cf7368216c, YMD=2026.04.20 11:07
