Program Version,EnergyPlus, Version 25.2.0-cf7368216c, YMD=2026.04.06 12:03,
   ** Severe  ** <root>[Fan:SystemModel][Exhaust_Fan][electric_power_per_unit_flow_rate] - Value type "string" for input "FanPowerCurve" not permitted by 'type' constraint.
   **  Fatal  ** Errors occurred on processing input file. Preceding condition(s) cause termination.
   ...Summary of Errors that led to program termination:
   ..... Reference severe error count=1
   ..... Last severe error=<root>[Fan:SystemModel][Exhaust_Fan][electric_power_per_unit_flow_rate] - Value type "string" for input "FanPowerCurve" not permitted by 'type' constraint.
   ************* Warning:  Node connection errors not checked - most system input has not been read (see previous warning).
   ************* Fatal error -- final processing.  Program exited before simulations began.  See previous error messages.
   ************* EnergyPlus Warmup Error Summary. During Warmup: 0 Warning; 0 Severe Errors.
   ************* EnergyPlus Sizing Error Summary. During Sizing: 0 Warning; 0 Severe Errors.
   ************* EnergyPlus Terminated--Fatal Error Detected. 0 Warning; 1 Severe Errors; Elapsed Time=00hr 00min  0.08sec
