Program Version,EnergyPlus, Version 25.2.0-cf7368216c, YMD=2026.04.20 09:21,
   ** Warning ** CheckEnvironmentSpecifications: SimulationControl specified doing weather simulations; run periods for weather file specified; but no weather file specified.
   ** Severe  ** GetNextEnvironment: Weather Environment(s) requested, but no weather file found
   **  Fatal  ** Due to previous error condition, simulation terminated
   ...Summary of Errors that led to program termination:
   ..... Reference severe error count=1
   ..... Last severe error=GetNextEnvironment: Weather Environment(s) requested, but no weather file found
   ************* Warning:  Node connection errors not checked - most system input has not been read (see previous warning).
   ************* Fatal error -- final processing.  Program exited before simulations began.  See previous error messages.
   ************* EnergyPlus Warmup Error Summary. During Warmup: 0 Warning; 0 Severe Errors.
   ************* EnergyPlus Sizing Error Summary. During Sizing: 0 Warning; 0 Severe Errors.
   ************* EnergyPlus Terminated--Fatal Error Detected. 1 Warning; 1 Severe Errors; Elapsed Time=00hr 00min  0.20sec
